<?xml version="1.0" encoding="UTF-8"?>

<!-- generated on 2026-02-04T18:54:13.984417+01:00 by Eclipse SUMO netedit 1.26.0
<neteditConfiguration xmlns:xsi="http://www.w3.org/2001/XMLSchema-instance" xsi:noNamespaceSchemaLocation="http://sumo.dlr.de/xsd/neteditConfiguration.xsd">

    <input>
        <sumo-net-file value="src/net.net.xml"/>
    </input>

    <output>
        <output-file value="src/net.net.xml"/>
        <output.street-names value="true"/>
    </output>

    <processing>
        <geometry.min-radius.fix.railways value="false"/>
        <geometry.avoid-overlap value="false"/>
        <geometry.max-grade.fix value="false"/>
        <offset.disable-normalization value="true"/>
        <lefthand value="0"/>
    </processing>

    <junctions>
        <no-turnarounds value="true"/>
        <junctions.corner-detail value="5"/>
        <junctions.limit-turn-speed value="5.50"/>
        <rectangular-lane-cut value="0"/>
    </junctions>

    <pedestrian>
        <walkingareas value="0"/>
    </pedestrian>

</neteditConfiguration>
-->

<net version="1.20" junctionCornerDetail="5" limitTurnSpeed="5.50" avoidOverlap="0" xmlns:xsi="http://www.w3.org/2001/XMLSchema-instance" xsi:noNamespaceSchemaLocation="http://sumo.dlr.de/xsd/net_file.xsd">

    <location netOffset="-668707.44,-4541326.95" convBoundary="-2.91,800.29,2736.33,3895.34" origBoundary="29.006605,41.005226,29.039602,41.040061" projParameter="+proj=utm +zone=35 +ellps=WGS84 +datum=WGS84 +units=m +no_defs"/>

    <type id="highway.primary" priority="12" numLanes="2" speed="27.78" disallow="tram rail_urban rail rail_electric rail_fast ship container cable_car subway aircraft wheelchair scooter drone" oneway="0"/>
    <type id="highway.tertiary" priority="10" numLanes="1" speed="22.22" disallow="tram rail_urban rail rail_electric rail_fast ship container cable_car subway aircraft wheelchair scooter drone" oneway="0"/>

    <edge id=":1868397683_0" function="internal">
        <lane id=":1868397683_0_0" index="0" disallow="tram rail_urban rail rail_electric rail_fast ship container cable_car subway aircraft wheelchair scooter drone" speed="13.89" length="0.63" shape="673.20,2335.97 673.61,2335.51"/>
        <lane id=":1868397683_0_1" index="1" disallow="tram rail_urban rail rail_electric rail_fast ship container cable_car subway aircraft wheelchair scooter drone" speed="13.89" length="0.63" shape="675.52,2333.77 675.83,2333.21"/>
    </edge>
    <edge id=":1868397683_2" function="internal">
        <lane id=":1868397683_2_0" index="0" disallow="tram rail_urban rail rail_electric rail_fast ship container cable_car subway aircraft wheelchair scooter drone" speed="13.89" length="0.42" shape="679.74,2329.16 679.85,2329.24 679.95,2329.27 680.05,2329.29 680.17,2329.37"/>
        <lane id=":1868397683_2_1" index="1" disallow="tram rail_urban rail rail_electric rail_fast ship container cable_car subway aircraft wheelchair scooter drone" speed="13.89" length="0.42" shape="677.51,2331.46 677.84,2331.57"/>
    </edge>
    <edge id=":1880134557_0" function="internal">
        <lane id=":1880134557_0_0" index="0" disallow="tram rail_urban rail rail_electric rail_fast ship container cable_car subway aircraft wheelchair scooter drone" speed="11.11" length="0.30" shape="1209.55,2774.15 1209.53,2774.45"/>
    </edge>
    <edge id=":1880134557_1" function="internal">
        <lane id=":1880134557_1_0" index="0" disallow="tram rail_urban rail rail_electric rail_fast ship container cable_car subway aircraft wheelchair scooter drone" speed="13.89" length="0.31" shape="1206.32,2774.29 1206.34,2774.20 1206.35,2774.14 1206.35,2774.08 1206.36,2773.99"/>
    </edge>
    <edge id=":1880160435_0" function="internal">
        <lane id=":1880160435_0_0" index="0" disallow="tram rail_urban rail rail_electric rail_fast ship container cable_car subway aircraft wheelchair scooter drone" speed="13.89" length="13.49" shape="1881.18,3464.19 1869.88,3457.02"/>
        <lane id=":1880160435_0_1" index="1" disallow="tram rail_urban rail rail_electric rail_fast ship container cable_car subway aircraft wheelchair scooter drone" speed="13.89" length="13.49" shape="1882.99,3461.55 1871.50,3454.26"/>
    </edge>
    <edge id=":1880160435_2" function="internal">
        <lane id=":1880160435_2_0" index="0" disallow="tram rail_urban rail rail_electric rail_fast ship container cable_car subway aircraft wheelchair scooter drone" speed="8.71" length="3.15" shape="1882.99,3461.55 1880.79,3459.29"/>
    </edge>
    <edge id=":1880160435_8" function="internal">
        <lane id=":1880160435_8_0" index="0" disallow="tram rail_urban rail rail_electric rail_fast ship container cable_car subway aircraft wheelchair scooter drone" speed="8.71" length="13.32" shape="1880.79,3459.29 1880.36,3458.86 1879.37,3455.52 1880.02,3451.52 1882.31,3446.88"/>
    </edge>
    <edge id=":1880160435_3" function="internal">
        <lane id=":1880160435_3_0" index="0" disallow="tram rail_urban rail rail_electric rail_fast ship container cable_car subway aircraft wheelchair scooter drone" speed="6.55" length="8.87" shape="1885.03,3448.58 1884.04,3450.79 1883.97,3452.81 1884.83,3454.64 1886.60,3456.26"/>
    </edge>
    <edge id=":1880160435_4" function="internal">
        <lane id=":1880160435_4_0" index="0" disallow="tram rail_urban rail rail_electric rail_fast ship container cable_car subway aircraft wheelchair scooter drone" speed="8.68" length="16.51" shape="1885.03,3448.58 1881.84,3452.67 1878.53,3454.98 1875.08,3455.51 1871.50,3454.26"/>
    </edge>
    <edge id=":1880160435_5" function="internal">
        <lane id=":1880160435_5_0" index="0" disallow="tram rail_urban rail rail_electric rail_fast ship container cable_car subway aircraft wheelchair scooter drone" speed="6.51" length="8.84" shape="1874.73,3448.74 1876.97,3449.65 1878.98,3449.65 1880.76,3448.72 1882.31,3446.88"/>
    </edge>
    <edge id=":1880160435_6" function="internal">
        <lane id=":1880160435_6_0" index="0" disallow="tram rail_urban rail rail_electric rail_fast ship container cable_car subway aircraft wheelchair scooter drone" speed="13.89" length="13.94" shape="1874.73,3448.74 1886.60,3456.26"/>
        <lane id=":1880160435_6_1" index="1" disallow="tram rail_urban rail rail_electric rail_fast ship container cable_car subway aircraft wheelchair scooter drone" speed="13.89" length="13.94" shape="1873.12,3451.50 1884.80,3458.91"/>
    </edge>
    <edge id=":6438477675_0" function="internal">
        <lane id=":6438477675_0_0" index="0" disallow="tram rail_urban rail rail_electric rail_fast ship container cable_car subway aircraft wheelchair scooter drone" speed="13.89" length="0.32" shape="696.22,2362.13 696.02,2361.87"/>
        <lane id=":6438477675_0_1" index="1" disallow="tram rail_urban rail rail_electric rail_fast ship container cable_car subway aircraft wheelchair scooter drone" speed="13.89" length="0.32" shape="698.76,2360.18 698.57,2359.94"/>
    </edge>
    <edge id=":6438477675_2" function="internal">
        <lane id=":6438477675_2_0" index="0" disallow="tram rail_urban rail rail_electric rail_fast ship container cable_car subway aircraft wheelchair scooter drone" speed="13.89" length="0.28" shape="703.68,2356.07 703.84,2356.29"/>
        <lane id=":6438477675_2_1" index="1" disallow="tram rail_urban rail rail_electric rail_fast ship container cable_car subway aircraft wheelchair scooter drone" speed="13.89" length="0.28" shape="701.13,2358.01 701.30,2358.23"/>
    </edge>
    <edge id=":J2_0" function="internal">
        <lane id=":J2_0_0" index="0" disallow="tram rail_urban rail rail_electric rail_fast ship container cable_car subway aircraft wheelchair scooter drone" speed="13.89" length="0.32" shape="2712.41,3861.85 2712.25,3861.55"/>
        <lane id=":J2_0_1" index="1" disallow="tram rail_urban rail rail_electric rail_fast ship container cable_car subway aircraft wheelchair scooter drone" speed="13.89" length="0.32" shape="2715.21,3860.30 2715.06,3860.03"/>
    </edge>
    <edge id=":J2_2" function="internal">
        <lane id=":J2_2_0" index="0" disallow="tram rail_urban rail rail_electric rail_fast ship container cable_car subway aircraft wheelchair scooter drone" speed="13.89" length="0.27" shape="2720.69,3856.99 2720.82,3857.21"/>
        <lane id=":J2_2_1" index="1" disallow="tram rail_urban rail rail_electric rail_fast ship container cable_car subway aircraft wheelchair scooter drone" speed="13.89" length="0.27" shape="2717.88,3858.51 2718.01,3858.76"/>
    </edge>
    <edge id=":J3_0" function="internal">
        <lane id=":J3_0_0" index="0" disallow="tram rail_urban rail rail_electric rail_fast ship container cable_car subway aircraft wheelchair scooter drone" speed="13.89" length="0.30" shape="418.92,840.48 418.90,840.18"/>
        <lane id=":J3_0_1" index="1" disallow="tram rail_urban rail rail_electric rail_fast ship container cable_car subway aircraft wheelchair scooter drone" speed="13.89" length="0.30" shape="422.12,840.34 422.10,840.04"/>
    </edge>
    <edge id=":J6_0" function="internal">
        <lane id=":J6_0_0" index="0" disallow="tram rail_urban rail rail_electric rail_fast ship container cable_car subway aircraft wheelchair scooter drone" speed="13.89" length="0.30" shape="433.89,839.59 433.89,839.89"/>
        <lane id=":J6_0_1" index="1" disallow="tram rail_urban rail rail_electric rail_fast ship container cable_car subway aircraft wheelchair scooter drone" speed="13.89" length="0.30" shape="430.69,839.67 430.69,839.97"/>
    </edge>
    <edge id=":J8_0" function="internal">
        <lane id=":J8_0_0" index="0" disallow="tram rail_urban rail rail_electric rail_fast ship container cable_car subway aircraft wheelchair scooter drone" speed="13.89" length="0.30" shape="154.90,1543.31 155.11,1543.09"/>
        <lane id=":J8_0_1" index="1" disallow="tram rail_urban rail rail_electric rail_fast ship container cable_car subway aircraft wheelchair scooter drone" speed="13.89" length="0.30" shape="157.21,1545.52 157.42,1545.31"/>
    </edge>
    <edge id=":Jn_0" function="internal">
        <lane id=":Jn_0_0" index="0" disallow="tram rail_urban rail rail_electric rail_fast ship container cable_car subway aircraft wheelchair scooter drone" speed="13.89" length="0.31" shape="1882.13,3464.85 1882.10,3464.82 1882.07,3464.80 1882.05,3464.78 1882.01,3464.75"/>
        <lane id=":Jn_0_1" index="1" disallow="tram rail_urban rail rail_electric rail_fast ship container cable_car subway aircraft wheelchair scooter drone" speed="13.89" length="0.31" shape="1884.19,3462.39 1884.08,3462.30 1884.01,3462.25 1883.93,3462.19 1883.82,3462.11"/>
    </edge>
    <edge id=":Jn_2" function="internal">
        <lane id=":Jn_2_0" index="0" disallow="tram rail_urban rail rail_electric rail_fast ship container cable_car subway aircraft wheelchair scooter drone" speed="13.89" length="0.92" shape="1887.43,3456.83 1887.70,3457.01 1887.87,3457.14 1888.04,3457.28 1888.29,3457.48"/>
        <lane id=":Jn_2_1" index="1" disallow="tram rail_urban rail rail_electric rail_fast ship container cable_car subway aircraft wheelchair scooter drone" speed="13.89" length="0.92" shape="1885.63,3459.47 1885.81,3459.60 1885.94,3459.69 1886.06,3459.79 1886.24,3459.94"/>
    </edge>
    <edge id=":Jsr_0" function="internal">
        <lane id=":Jsr_0_0" index="0" disallow="tram rail_urban rail rail_electric rail_fast ship container cable_car subway aircraft wheelchair scooter drone" speed="13.89" length="0.10" shape="165.29,1555.53 165.23,1555.59"/>
        <lane id=":Jsr_0_1" index="1" disallow="tram rail_urban rail rail_electric rail_fast ship container cable_car subway aircraft wheelchair scooter drone" speed="13.89" length="0.10" shape="162.87,1553.43 162.93,1553.37"/>
    </edge>
    <edge id=":cluster_1868397697_6438477670_0" function="internal">
        <lane id=":cluster_1868397697_6438477670_0_0" index="0" disallow="tram rail_urban rail rail_electric rail_fast ship container cable_car subway aircraft wheelchair scooter drone" speed="13.89" length="28.50" shape="693.24,2358.19 688.70,2352.55 684.06,2347.38 679.27,2342.33 674.26,2337.09"/>
        <lane id=":cluster_1868397697_6438477670_0_1" index="1" disallow="tram rail_urban rail rail_electric rail_fast ship container cable_car subway aircraft wheelchair scooter drone" speed="13.89" length="28.50" shape="695.70,2356.13 691.13,2350.47 686.45,2345.25 681.62,2340.16 676.58,2334.89"/>
    </edge>
    <edge id=":cluster_1868397697_6438477670_2" function="internal">
        <lane id=":cluster_1868397697_6438477670_2_0" index="0" disallow="tram rail_urban rail rail_electric rail_fast ship container cable_car subway aircraft wheelchair scooter drone" speed="12.16" length="6.18" shape="695.70,2356.13 692.39,2350.91"/>
    </edge>
    <edge id=":cluster_1868397697_6438477670_9" function="internal">
        <lane id=":cluster_1868397697_6438477670_9_0" index="0" disallow="tram rail_urban rail rail_electric rail_fast ship container cable_car subway aircraft wheelchair scooter drone" speed="12.16" length="20.24" shape="692.39,2350.91 691.23,2349.07 689.02,2342.68 689.07,2336.94 691.38,2331.88"/>
    </edge>
    <edge id=":cluster_1868397697_6438477670_3" function="internal">
        <lane id=":cluster_1868397697_6438477670_3_0" index="0" disallow="tram rail_urban rail rail_electric rail_fast ship container cable_car subway aircraft wheelchair scooter drone" speed="8.68" length="12.71" shape="702.98,2340.28 700.83,2343.94 699.72,2347.12 699.64,2349.81 700.61,2352.02"/>
        <lane id=":cluster_1868397697_6438477670_3_1" index="1" disallow="tram rail_urban rail rail_electric rail_fast ship container cable_car subway aircraft wheelchair scooter drone" speed="9.94" length="16.91" shape="700.39,2338.40 697.74,2343.05 696.48,2347.21 696.62,2350.89 698.15,2354.08"/>
    </edge>
    <edge id=":cluster_1868397697_6438477670_5" function="internal">
        <lane id=":cluster_1868397697_6438477670_5_0" index="0" disallow="tram rail_urban rail rail_electric rail_fast ship container cable_car subway aircraft wheelchair scooter drone" speed="10.47" length="29.14" shape="700.39,2338.40 694.94,2343.64 689.25,2344.22 683.17,2341.01 676.58,2334.89"/>
    </edge>
    <edge id=":cluster_1868397697_6438477670_6" function="internal">
        <lane id=":cluster_1868397697_6438477670_6_0" index="0" disallow="tram rail_urban rail rail_electric rail_fast ship container cable_car subway aircraft wheelchair scooter drone" speed="6.14" length="9.06" shape="681.23,2330.49 683.23,2332.08 685.16,2332.52 687.01,2331.83 688.78,2330.00"/>
    </edge>
    <edge id=":cluster_1868397697_6438477670_7" function="internal">
        <lane id=":cluster_1868397697_6438477670_7_0" index="0" disallow="tram rail_urban rail rail_electric rail_fast ship container cable_car subway aircraft wheelchair scooter drone" speed="13.89" length="28.88" shape="681.23,2330.49 686.31,2335.80 691.23,2340.99 696.00,2346.31 700.61,2352.02"/>
        <lane id=":cluster_1868397697_6438477670_7_1" index="1" disallow="tram rail_urban rail rail_electric rail_fast ship container cable_car subway aircraft wheelchair scooter drone" speed="13.89" length="28.88" shape="678.91,2332.69 683.96,2337.98 688.84,2343.12 693.57,2348.39 698.15,2354.08"/>
    </edge>
    <edge id=":cluster_21139115_2373176831_0" function="internal">
        <lane id=":cluster_21139115_2373176831_0_0" index="0" disallow="tram rail_urban rail rail_electric rail_fast ship container cable_car subway aircraft wheelchair scooter drone" speed="13.89" length="20.68" shape="1124.05,2847.96 1108.21,2834.47"/>
        <lane id=":cluster_21139115_2373176831_0_1" index="1" disallow="tram rail_urban rail rail_electric rail_fast ship container cable_car subway aircraft wheelchair scooter drone" speed="13.89" length="20.68" shape="1126.06,2845.46 1110.40,2832.13"/>
    </edge>
    <edge id=":cluster_21139115_2373176831_2" function="internal">
        <lane id=":cluster_21139115_2373176831_2_0" index="0" disallow="tram rail_urban rail rail_electric rail_fast ship container cable_car subway aircraft wheelchair scooter drone" speed="8.93" length="7.98" shape="1126.06,2845.46 1120.45,2839.78"/>
    </edge>
    <edge id=":cluster_21139115_2373176831_8" function="internal">
        <lane id=":cluster_21139115_2373176831_8_0" index="0" disallow="tram rail_urban rail rail_electric rail_fast ship container cable_car subway aircraft wheelchair scooter drone" speed="8.93" length="17.40" shape="1120.45,2839.78 1120.32,2839.65 1118.58,2834.64 1120.85,2830.43 1127.11,2827.02"/>
    </edge>
    <edge id=":cluster_21139115_2373176831_3" function="internal">
        <lane id=":cluster_21139115_2373176831_3_0" index="0" disallow="tram rail_urban rail rail_electric rail_fast ship container cable_car subway aircraft wheelchair scooter drone" speed="5.73" length="9.49" shape="1130.74,2833.56 1128.34,2834.89 1127.43,2836.49 1128.01,2838.35 1130.06,2840.47"/>
    </edge>
    <edge id=":cluster_21139115_2373176831_4" function="internal">
        <lane id=":cluster_21139115_2373176831_4_0" index="0" disallow="tram rail_urban rail rail_electric rail_fast ship container cable_car subway aircraft wheelchair scooter drone" speed="11.93" length="21.50" shape="1130.74,2833.56 1124.47,2835.39 1118.99,2835.77 1114.30,2834.68 1110.40,2832.13"/>
    </edge>
    <edge id=":cluster_21139115_2373176831_5" function="internal">
        <lane id=":cluster_21139115_2373176831_5_0" index="0" disallow="tram rail_urban rail rail_electric rail_fast ship container cable_car subway aircraft wheelchair scooter drone" speed="9.43" length="12.86" shape="1114.76,2827.45 1116.71,2828.52 1119.41,2828.81 1122.88,2828.31 1127.11,2827.02"/>
    </edge>
    <edge id=":cluster_21139115_2373176831_6" function="internal">
        <lane id=":cluster_21139115_2373176831_6_0" index="0" disallow="tram rail_urban rail rail_electric rail_fast ship container cable_car subway aircraft wheelchair scooter drone" speed="13.89" length="20.21" shape="1114.76,2827.45 1130.06,2840.47"/>
        <lane id=":cluster_21139115_2373176831_6_1" index="1" disallow="tram rail_urban rail rail_electric rail_fast ship container cable_car subway aircraft wheelchair scooter drone" speed="13.89" length="20.21" shape="1112.58,2829.79 1128.06,2842.97"/>
    </edge>

    <edge id="228660157" from="cluster_21139115_2373176831" to="1880134557" name="Hüseyin Baykara Sokağı" priority="10" type="highway.tertiary" spreadType="center" shape="1114.12,2833.42 1122.94,2828.54 1131.14,2825.56 1141.21,2825.18 1154.92,2826.71 1161.57,2827.26 1171.44,2828.33 1183.03,2824.60 1194.42,2814.51 1199.15,2807.24 1203.78,2791.76 1206.39,2773.82">
        <lane id="228660157_0" index="0" disallow="tram rail_urban rail rail_electric rail_fast ship container cable_car subway aircraft wheelchair scooter drone" speed="13.89" length="114.64" shape="1127.11,2827.02 1131.14,2825.56 1141.21,2825.18 1154.92,2826.71 1161.57,2827.26 1171.44,2828.33 1183.03,2824.60 1194.42,2814.51 1199.15,2807.24 1203.78,2791.76 1206.32,2774.29">
            <param key="origId" value="228660157"/>
        </lane>
        <param key="origFrom" value="2373176831"/>
    </edge>
    <edge id="22876129" from="1880134557" to="cluster_21139115_2373176831" name="Hüseyin Baykara Sokağı" priority="10" type="highway.tertiary" spreadType="center" shape="1209.55,2774.12 1208.71,2790.58 1203.00,2809.05 1196.70,2819.10 1187.06,2826.89 1172.63,2833.09 1158.67,2831.16 1148.41,2830.18 1138.12,2830.71 1128.86,2834.28 1120.84,2839.22">
        <lane id="22876129_0" index="0" disallow="tram rail_urban rail rail_electric rail_fast ship container cable_car subway aircraft wheelchair scooter drone" speed="13.89" length="118.05" shape="1209.53,2774.45 1208.71,2790.58 1203.00,2809.05 1196.70,2819.10 1187.06,2826.89 1172.63,2833.09 1158.67,2831.16 1148.41,2830.18 1138.12,2830.71 1130.74,2833.56">
            <param key="origId" value="22876129"/>
        </lane>
        <param key="origTo" value="21139115"/>
    </edge>
    <edge id="EntryM" from="J4" to="1880134557" name="Hüseyin Baykara Sokağı" priority="10" type="highway.tertiary">
        <lane id="EntryM_0" index="0" disallow="tram rail_urban rail rail_electric rail_fast ship container cable_car subway aircraft wheelchair scooter drone" speed="8.33" length="140.66" shape="1216.97,2633.69 1209.55,2774.15">
            <param key="origId" value="177591203 228660158"/>
        </lane>
    </edge>
    <edge id="EntryMN" from="J7" to="1880160435" name="İcadiye Caddesi" priority="10" type="highway.tertiary">
        <lane id="EntryMN_0" index="0" disallow="tram rail_urban rail rail_electric rail_fast ship container cable_car subway aircraft wheelchair scooter drone" speed="8.33" length="320.98" shape="2055.34,3176.51 1885.03,3448.58">
            <param key="origId" value="401119793"/>
        </lane>
    </edge>
    <edge id="EntryMS" from="4424111980" to="cluster_1868397697_6438477670" name="Hakimiyeti Milliye Caddesi" priority="12" type="highway.primary" spreadType="center" shape="935.26,2174.81 804.42,2255.61 796.81,2260.89 784.26,2262.81 767.58,2265.55 749.17,2268.93 743.37,2273.63 736.28,2285.83 727.01,2301.27 713.92,2319.84 703.21,2337.11 700.12,2341.63 693.20,2350.54">
        <lane id="EntryMS_0" index="0" disallow="tram rail_urban rail rail_electric rail_fast ship container cable_car subway aircraft wheelchair scooter drone" speed="8.33" length="296.69" shape="936.10,2176.17 805.30,2256.95 797.42,2262.42 784.51,2264.39 767.85,2267.13 749.86,2270.43 744.61,2274.69 737.66,2286.64 728.35,2302.14 715.25,2320.72 704.55,2337.98 702.98,2340.28">
            <param key="origId" value="444951614"/>
        </lane>
        <lane id="EntryMS_1" index="1" disallow="tram rail_urban rail rail_electric rail_fast ship container cable_car subway aircraft wheelchair scooter drone" speed="8.33" length="296.69" shape="934.42,2173.45 803.54,2254.27 796.20,2259.36 784.01,2261.23 767.31,2263.97 748.48,2267.43 742.13,2272.57 734.90,2285.02 725.67,2300.40 712.59,2318.96 701.87,2336.24 700.39,2338.40">
            <param key="origId" value="444951614"/>
        </lane>
        <param key="origTo" value="6438477670"/>
    </edge>
    <edge id="ExitM" from="1880134557" to="J4" name="Hüseyin Baykara Sokağı" priority="10" type="highway.tertiary">
        <lane id="ExitM_0" index="0" disallow="tram rail_urban rail rail_electric rail_fast ship container cable_car subway aircraft wheelchair scooter drone" speed="13.89" length="140.66" shape="1206.36,2773.99 1213.77,2633.53">
            <param key="origId" value="228660158 177591203"/>
        </lane>
    </edge>
    <edge id="ExitMN" from="1880160435" to="J7" name="İcadiye Caddesi" priority="10" type="highway.tertiary">
        <lane id="ExitMN_0" index="0" disallow="tram rail_urban rail rail_electric rail_fast ship container cable_car subway aircraft wheelchair scooter drone" speed="13.89" length="320.98" shape="1882.31,3446.88 2052.62,3174.81">
            <param key="origId" value="401119793"/>
        </lane>
    </edge>
    <edge id="ExitMS" from="cluster_1868397697_6438477670" to="cluster_2456974708_278085987_3409823942" name="Hakimiyeti Milliye Caddesi" priority="12" type="highway.primary" spreadType="center" shape="683.56,2339.94 686.68,2335.63 689.44,2331.82 698.18,2319.76 712.53,2299.81 720.86,2288.58 721.98,2287.07 730.38,2274.30 733.32,2267.85 734.43,2265.42 737.64,2258.36 739.10,2253.44">
        <lane id="ExitMS_0" index="0" disallow="tram rail_urban rail rail_electric rail_fast ship container cable_car subway aircraft wheelchair scooter drone" speed="13.89" length="95.62" shape="688.78,2330.00 696.88,2318.82 711.24,2298.87 719.57,2287.63 720.67,2286.15 728.98,2273.52 731.86,2267.19 732.97,2264.76 736.14,2257.80 738.55,2249.68">
            <param key="origId" value="445138729"/>
        </lane>
        <lane id="ExitMS_1" index="1" disallow="tram rail_urban rail rail_electric rail_fast ship container cable_car subway aircraft wheelchair scooter drone" speed="13.89" length="95.62" shape="691.38,2331.88 699.48,2320.70 713.82,2300.75 722.15,2289.53 723.29,2287.99 731.78,2275.08 734.78,2268.51 735.89,2266.08 739.14,2258.92 741.62,2250.59">
            <param key="origId" value="445138729"/>
        </lane>
        <param key="origFrom" value="1868397697"/>
        <param key="origTo" value="3409823942"/>
    </edge>
    <edge id="ExitNR" from="J2" to="J5" name="Abdullahağa Caddesi" priority="12" type="highway.primary">
        <lane id="ExitNR_0" index="0" disallow="tram rail_urban rail rail_electric rail_fast ship container cable_car subway aircraft wheelchair scooter drone" speed="13.89" length="40.88" shape="2720.82,3857.21 2740.53,3893.02">
            <param key="origId" value="682020367"/>
        </lane>
        <lane id="ExitNR_1" index="1" disallow="tram rail_urban rail rail_electric rail_fast ship container cable_car subway aircraft wheelchair scooter drone" speed="13.89" length="40.88" shape="2718.01,3858.76 2737.73,3894.57">
            <param key="origId" value="682020367"/>
        </lane>
    </edge>
    <edge id="ExitSL" from="J3" to="J0" name="Üsküdar Harem Sahil Yolu" priority="12" type="highway.primary" spreadType="center">
        <lane id="ExitSL_0" index="0" disallow="tram rail_urban rail rail_electric rail_fast ship container cable_car subway aircraft wheelchair scooter drone" speed="13.89" length="39.58" shape="418.90,840.18 417.15,800.64">
            <param key="origId" value="580343505"/>
        </lane>
        <lane id="ExitSL_1" index="1" disallow="tram rail_urban rail rail_electric rail_fast ship container cable_car subway aircraft wheelchair scooter drone" speed="13.89" length="39.58" shape="422.10,840.04 420.35,800.50">
            <param key="origId" value="580343505"/>
        </lane>
        <param key="origTo" value="248558982"/>
    </edge>
    <edge id="NLe" from="J5" to="J2" name="Abdullahağa Caddesi" priority="12" type="highway.primary">
        <lane id="NLe_0" index="0" disallow="tram rail_urban rail rail_electric rail_fast ship container cable_car subway aircraft wheelchair scooter drone" speed="13.89" length="40.88" shape="2732.13,3897.66 2712.41,3861.85">
            <param key="origId" value="682020367"/>
        </lane>
        <lane id="NLe_1" index="1" disallow="tram rail_urban rail rail_electric rail_fast ship container cable_car subway aircraft wheelchair scooter drone" speed="13.89" length="40.88" shape="2734.93,3896.11 2715.21,3860.30">
            <param key="origId" value="682020367"/>
        </lane>
    </edge>
    <edge id="SRe" from="J1" to="J6" name="Üsküdar Harem Sahil Yolu" priority="12" type="highway.primary" spreadType="center">
        <lane id="SRe_0" index="0" disallow="tram rail_urban rail rail_electric rail_fast ship container cable_car subway aircraft wheelchair scooter drone" speed="13.89" length="39.35" shape="433.01,800.25 433.89,839.59">
            <param key="origId" value="154200319"/>
        </lane>
        <lane id="SRe_1" index="1" disallow="tram rail_urban rail rail_electric rail_fast ship container cable_car subway aircraft wheelchair scooter drone" speed="13.89" length="39.35" shape="429.81,800.33 430.69,839.67">
            <param key="origId" value="154200319"/>
        </lane>
        <param key="origFrom" value="1667683904"/>
    </edge>
    <edge id="eN2S_3" from="Jn" to="1880160435" name="Kuzguncuk Çarşısı Caddesi" priority="12" type="highway.primary">
        <lane id="eN2S_3_0" index="0" disallow="tram rail_urban rail rail_electric rail_fast ship container cable_car subway aircraft wheelchair scooter drone" speed="13.89" length="1.00" shape="1882.01,3464.75 1881.18,3464.19">
            <param key="origId" value="401205048"/>
        </lane>
        <lane id="eN2S_3_1" index="1" disallow="tram rail_urban rail rail_electric rail_fast ship container cable_car subway aircraft wheelchair scooter drone" speed="13.89" length="1.00" shape="1883.82,3462.11 1882.99,3461.55">
            <param key="origId" value="401205048"/>
        </lane>
    </edge>
    <edge id="eN2S_4" from="1880160435" to="cluster_21139115_2373176831" name="Paşa Limanı Caddesi" priority="12" type="highway.primary" shape="1878.26,3456.37 1827.96,3426.88 1801.54,3407.11 1747.09,3363.41 1737.82,3354.67 1730.43,3342.58 1726.86,3331.26 1722.10,3322.61 1716.61,3316.19 1704.91,3304.91 1690.15,3289.73 1669.90,3268.14 1644.69,3245.98 1623.77,3224.13 1595.81,3193.82 1575.39,3169.98 1526.50,3118.50 1497.87,3076.59 1480.99,3057.43 1468.98,3046.42 1452.09,3033.44 1450.06,3032.01 1410.74,3006.67 1381.05,2985.56 1380.17,2984.95 1345.38,2960.59 1314.08,2948.83 1291.04,2940.20 1273.82,2933.51 1252.82,2924.71 1229.88,2911.81 1196.93,2893.30 1174.98,2881.18 1173.98,2880.63 1162.50,2872.08 1150.91,2863.46 1149.42,2862.18 1120.84,2839.22">
        <lane id="eN2S_4_0" index="0" disallow="tram rail_urban rail rail_electric rail_fast ship container cable_car subway aircraft wheelchair scooter drone" speed="13.89" length="978.39" shape="1869.88,3457.02 1825.30,3430.88 1798.60,3410.90 1743.94,3367.03 1734.06,3357.72 1726.03,3344.58 1722.43,3333.16 1718.13,3325.36 1713.11,3319.49 1701.52,3308.31 1686.68,3293.05 1666.56,3271.59 1641.37,3249.45 1620.27,3227.42 1592.22,3197.01 1571.82,3173.20 1522.75,3121.53 1494.07,3079.54 1477.56,3060.80 1465.89,3050.10 1449.24,3037.31 1447.38,3035.99 1408.05,3010.65 1378.27,2989.47 1377.43,2988.89 1343.12,2964.87 1312.39,2953.32 1289.33,2944.68 1272.02,2937.96 1250.71,2929.03 1227.53,2915.99 1194.59,2897.49 1172.66,2885.38 1171.38,2884.68 1159.63,2875.93 1147.91,2867.21 1146.35,2865.87 1124.05,2847.96">
            <param key="origId" value="401205050"/>
        </lane>